
OS:Version,
  {2e839616-01ed-4db0-aa7d-6384738fecc5}, !- Handle
  2.8.1;                                  !- Version Identifier

OS:Material,
  {5782a506-0bfe-435d-a8a0-0eddebd9f15d}, !- Handle
  Generic Wall Air Gap,                   !- Name
  Smooth,                                 !- Roughness
  0.1,                                    !- Thickness {m}
  0.667,                                  !- Conductivity {W/m-K}
  1.28,                                   !- Density {kg/m3}
  1000,                                   !- Specific Heat {J/kg-K}
  0.9,                                    !- Thermal Absorptance
  0.7,                                    !- Solar Absorptance
  0.7;                                    !- Visible Absorptance

OS:Material,
  {40b55318-f8d3-44ab-ac5e-042cfbcfc819}, !- Handle
  Generic 25mm Wood,                      !- Name
  MediumSmooth,                           !- Roughness
  0.0254,                                 !- Thickness {m}
  0.15,                                   !- Conductivity {W/m-K}
  608,                                    !- Density {kg/m3}
  1630,                                   !- Specific Heat {J/kg-K}
  0.9,                                    !- Thermal Absorptance
  0.5,                                    !- Solar Absorptance
  0.5;                                    !- Visible Absorptance

OS:Material,
  {43392c3e-8ed6-4342-b7d8-bcb85763ea19}, !- Handle
  Generic HW Concrete,                    !- Name
  MediumRough,                            !- Roughness
  0.2,                                    !- Thickness {m}
  1.95,                                   !- Conductivity {W/m-K}
  2240,                                   !- Density {kg/m3}
  900,                                    !- Specific Heat {J/kg-K}
  0.9,                                    !- Thermal Absorptance
  0.8,                                    !- Solar Absorptance
  0.8;                                    !- Visible Absorptance

OS:WindowMaterial:Gas,
  {7006f69c-8230-42fc-b9f1-0a3b0bb73f1c}, !- Handle
  Generic Window Air Gap,                 !- Name
  Air,                                    !- Gas Type
  0.0127;                                 !- Thickness {m}

OS:Material,
  {bf01cab1-c0cc-4ae8-8177-0b4aea60ecfb}, !- Handle
  Generic Brick,                          !- Name
  MediumRough,                            !- Roughness
  0.1,                                    !- Thickness {m}
  0.9,                                    !- Conductivity {W/m-K}
  1920,                                   !- Density {kg/m3}
  790,                                    !- Specific Heat {J/kg-K}
  0.9,                                    !- Thermal Absorptance
  0.65,                                   !- Solar Absorptance
  0.65;                                   !- Visible Absorptance

OS:Material,
  {2306f2eb-5ea4-434d-9df9-9a80ff6c2a91}, !- Handle
  Generic Painted Metal,                  !- Name
  Smooth,                                 !- Roughness
  0.0015,                                 !- Thickness {m}
  45,                                     !- Conductivity {W/m-K}
  7690,                                   !- Density {kg/m3}
  410,                                    !- Specific Heat {J/kg-K}
  0.9,                                    !- Thermal Absorptance
  0.5,                                    !- Solar Absorptance
  0.5;                                    !- Visible Absorptance

OS:Material,
  {afccda1f-2a20-424a-8cc2-c20fccee9172}, !- Handle
  Generic Gypsum Board,                   !- Name
  MediumSmooth,                           !- Roughness
  0.0127,                                 !- Thickness {m}
  0.16,                                   !- Conductivity {W/m-K}
  800,                                    !- Density {kg/m3}
  1090,                                   !- Specific Heat {J/kg-K}
  0.9,                                    !- Thermal Absorptance
  0.5,                                    !- Solar Absorptance
  0.5;                                    !- Visible Absorptance

OS:Material,
  {5facabb5-9d85-40d4-9fac-4f2ff85107d8}, !- Handle
  Generic Roof Membrane,                  !- Name
  MediumRough,                            !- Roughness
  0.01,                                   !- Thickness {m}
  0.16,                                   !- Conductivity {W/m-K}
  1120,                                   !- Density {kg/m3}
  1460,                                   !- Specific Heat {J/kg-K}
  0.9,                                    !- Thermal Absorptance
  0.65,                                   !- Solar Absorptance
  0.65;                                   !- Visible Absorptance

OS:WindowMaterial:Glazing,
  {91b665da-7a37-426d-b156-77caeca5edef}, !- Handle
  Generic Clear Glass,                    !- Name
  SpectralAverage,                        !- Optical Data Type
  ,                                       !- Window Glass Spectral Data Set Name
  0.006,                                  !- Thickness {m}
  0.77,                                   !- Solar Transmittance at Normal Incidence
  0.07,                                   !- Front Side Solar Reflectance at Normal Incidence
  0.07,                                   !- Back Side Solar Reflectance at Normal Incidence
  0.88,                                   !- Visible Transmittance at Normal Incidence
  0.08,                                   !- Front Side Visible Reflectance at Normal Incidence
  0.08,                                   !- Back Side Visible Reflectance at Normal Incidence
  0,                                      !- Infrared Transmittance at Normal Incidence
  0.84,                                   !- Front Side Infrared Hemispherical Emissivity
  0.84,                                   !- Back Side Infrared Hemispherical Emissivity
  1,                                      !- Conductivity {W/m-K}
  1,                                      !- Dirt Correction Factor for Solar and Visible Transmittance
  No;                                     !- Solar Diffusing

OS:WindowMaterial:Glazing,
  {5e60f009-af98-4659-acd0-499b1ef1ce78}, !- Handle
  Generic Low-e Glass,                    !- Name
  SpectralAverage,                        !- Optical Data Type
  ,                                       !- Window Glass Spectral Data Set Name
  0.006,                                  !- Thickness {m}
  0.45,                                   !- Solar Transmittance at Normal Incidence
  0.36,                                   !- Front Side Solar Reflectance at Normal Incidence
  0.36,                                   !- Back Side Solar Reflectance at Normal Incidence
  0.71,                                   !- Visible Transmittance at Normal Incidence
  0.21,                                   !- Front Side Visible Reflectance at Normal Incidence
  0.21,                                   !- Back Side Visible Reflectance at Normal Incidence
  0,                                      !- Infrared Transmittance at Normal Incidence
  0.84,                                   !- Front Side Infrared Hemispherical Emissivity
  0.047,                                  !- Back Side Infrared Hemispherical Emissivity
  1,                                      !- Conductivity {W/m-K}
  1,                                      !- Dirt Correction Factor for Solar and Visible Transmittance
  No;                                     !- Solar Diffusing

OS:Material,
  {00bf77c4-2a88-4be2-a928-0993bfd6643c}, !- Handle
  Generic 25mm Insulation,                !- Name
  MediumRough,                            !- Roughness
  0.05,                                   !- Thickness {m}
  0.03,                                   !- Conductivity {W/m-K}
  43,                                     !- Density {kg/m3}
  1210,                                   !- Specific Heat {J/kg-K}
  0.9,                                    !- Thermal Absorptance
  0.7,                                    !- Solar Absorptance
  0.7;                                    !- Visible Absorptance

OS:Material,
  {d515e3fe-ede3-4bc3-a5ec-6234022f750e}, !- Handle
  PolyIso,                                !- Name
  MediumRough,                            !- Roughness
  0.2,                                    !- Thickness {m}
  0.03,                                   !- Conductivity {W/m-K}
  43,                                     !- Density {kg/m3}
  1210,                                   !- Specific Heat {J/kg-K}
  0.9,                                    !- Thermal Absorptance
  0.7,                                    !- Solar Absorptance
  0.7;                                    !- Visible Absorptance

OS:Material,
  {68de8b5f-b734-470e-b414-77c8f4617356}, !- Handle
  Generic Ceiling Air Gap,                !- Name
  Smooth,                                 !- Roughness
  0.1,                                    !- Thickness {m}
  0.556,                                  !- Conductivity {W/m-K}
  1.28,                                   !- Density {kg/m3}
  1000,                                   !- Specific Heat {J/kg-K}
  0.9,                                    !- Thermal Absorptance
  0.7,                                    !- Solar Absorptance
  0.7;                                    !- Visible Absorptance

OS:Material,
  {c98dc5ba-7279-4f21-a8b6-4c3fdef66e0e}, !- Handle
  Generic LW Concrete,                    !- Name
  MediumRough,                            !- Roughness
  0.1,                                    !- Thickness {m}
  0.53,                                   !- Conductivity {W/m-K}
  1280,                                   !- Density {kg/m3}
  840,                                    !- Specific Heat {J/kg-K}
  0.9,                                    !- Thermal Absorptance
  0.8,                                    !- Solar Absorptance
  0.8;                                    !- Visible Absorptance

OS:Material,
  {89869d9f-804f-4ba8-afd2-d667f1626103}, !- Handle
  Generic Acoustic Tile,                  !- Name
  MediumSmooth,                           !- Roughness
  0.02,                                   !- Thickness {m}
  0.06,                                   !- Conductivity {W/m-K}
  368,                                    !- Density {kg/m3}
  590,                                    !- Specific Heat {J/kg-K}
  0.9,                                    !- Thermal Absorptance
  0.2,                                    !- Solar Absorptance
  0.2;                                    !- Visible Absorptance

OS:Material,
  {3a7bb3be-05bb-49cc-ab60-26ab625bb9e2}, !- Handle
  Generic 50mm Insulation,                !- Name
  MediumRough,                            !- Roughness
  0.05,                                   !- Thickness {m}
  0.03,                                   !- Conductivity {W/m-K}
  43,                                     !- Density {kg/m3}
  1210,                                   !- Specific Heat {J/kg-K}
  0.9,                                    !- Thermal Absorptance
  0.7,                                    !- Solar Absorptance
  0.7;                                    !- Visible Absorptance

OS:Construction,
  {299f4734-d186-42d7-ba48-7fa197065589}, !- Handle
  Generic Underground Roof,               !- Name
  ,                                       !- Surface Rendering Name
  {3a7bb3be-05bb-49cc-ab60-26ab625bb9e2}, !- Layer 1
  {43392c3e-8ed6-4342-b7d8-bcb85763ea19}, !- Layer 2
  {68de8b5f-b734-470e-b414-77c8f4617356}, !- Layer 3
  {89869d9f-804f-4ba8-afd2-d667f1626103}; !- Layer 4

OS:Construction,
  {0288a39f-a96a-4588-8f0a-e25213908af2}, !- Handle
  Generic Roof,                           !- Name
  ,                                       !- Surface Rendering Name
  {5facabb5-9d85-40d4-9fac-4f2ff85107d8}, !- Layer 1
  {3a7bb3be-05bb-49cc-ab60-26ab625bb9e2}, !- Layer 2
  {c98dc5ba-7279-4f21-a8b6-4c3fdef66e0e}, !- Layer 3
  {68de8b5f-b734-470e-b414-77c8f4617356}, !- Layer 4
  {89869d9f-804f-4ba8-afd2-d667f1626103}; !- Layer 5

OS:Construction,
  {38c50ce2-8e52-43d9-9d03-6698582a2a57}, !- Handle
  Generic Interior Door,                  !- Name
  ,                                       !- Surface Rendering Name
  {40b55318-f8d3-44ab-ac5e-042cfbcfc819}; !- Layer 1

OS:Construction,
  {b510ade5-e1d7-4156-9fcd-bd3ee1e24e45}, !- Handle
  Generic Interior Wall,                  !- Name
  ,                                       !- Surface Rendering Name
  {afccda1f-2a20-424a-8cc2-c20fccee9172}, !- Layer 1
  {5782a506-0bfe-435d-a8a0-0eddebd9f15d}, !- Layer 2
  {afccda1f-2a20-424a-8cc2-c20fccee9172}; !- Layer 3

OS:Construction,
  {a125a58a-f40e-4288-9223-aecd8954bd53}, !- Handle
  Generic Single Pane,                    !- Name
  ,                                       !- Surface Rendering Name
  {91b665da-7a37-426d-b156-77caeca5edef}; !- Layer 1

OS:Construction,
  {352503d5-4f95-4d63-82d4-6d6cd86f9d5c}, !- Handle
  Generic Interior Ceiling,               !- Name
  ,                                       !- Surface Rendering Name
  {c98dc5ba-7279-4f21-a8b6-4c3fdef66e0e}, !- Layer 1
  {68de8b5f-b734-470e-b414-77c8f4617356}, !- Layer 2
  {89869d9f-804f-4ba8-afd2-d667f1626103}; !- Layer 3

OS:Construction,
  {80a157f4-4e55-417a-b9b0-bfc5ff085167}, !- Handle
  Generic Exposed Floor,                  !- Name
  ,                                       !- Surface Rendering Name
  {2306f2eb-5ea4-434d-9df9-9a80ff6c2a91}, !- Layer 1
  {68de8b5f-b734-470e-b414-77c8f4617356}, !- Layer 2
  {3a7bb3be-05bb-49cc-ab60-26ab625bb9e2}, !- Layer 3
  {c98dc5ba-7279-4f21-a8b6-4c3fdef66e0e}; !- Layer 4

OS:Construction,
  {a45339f2-18d8-4f08-a31a-64db4f0d302c}, !- Handle
  Generic Interior Floor,                 !- Name
  ,                                       !- Surface Rendering Name
  {89869d9f-804f-4ba8-afd2-d667f1626103}, !- Layer 1
  {68de8b5f-b734-470e-b414-77c8f4617356}, !- Layer 2
  {c98dc5ba-7279-4f21-a8b6-4c3fdef66e0e}; !- Layer 3

OS:Construction,
  {bcbb9fac-6183-4513-bce4-eca665ccfb08}, !- Handle
  Generic Double Pane,                    !- Name
  ,                                       !- Surface Rendering Name
  {5e60f009-af98-4659-acd0-499b1ef1ce78}, !- Layer 1
  {7006f69c-8230-42fc-b9f1-0a3b0bb73f1c}, !- Layer 2
  {91b665da-7a37-426d-b156-77caeca5edef}; !- Layer 3

OS:Construction,
  {3496ecf0-12f9-4278-b88c-e98129f1976c}, !- Handle
  Attic Floor Construction,               !- Name
  ,                                       !- Surface Rendering Name
  {40b55318-f8d3-44ab-ac5e-042cfbcfc819}, !- Layer 1
  {3a7bb3be-05bb-49cc-ab60-26ab625bb9e2}, !- Layer 2
  {40b55318-f8d3-44ab-ac5e-042cfbcfc819}; !- Layer 3

OS:Construction,
  {4bd43abd-4686-4463-ae29-28e5e839f9da}, !- Handle
  Attic Roof Construction,                !- Name
  ,                                       !- Surface Rendering Name
  {5facabb5-9d85-40d4-9fac-4f2ff85107d8}, !- Layer 1
  {d515e3fe-ede3-4bc3-a5ec-6234022f750e}, !- Layer 2
  {40b55318-f8d3-44ab-ac5e-042cfbcfc819}; !- Layer 3

OS:Construction,
  {d6c3aa83-8cbc-458e-b573-7a07c2843878}, !- Handle
  Generic Exterior Wall,                  !- Name
  ,                                       !- Surface Rendering Name
  {bf01cab1-c0cc-4ae8-8177-0b4aea60ecfb}, !- Layer 1
  {c98dc5ba-7279-4f21-a8b6-4c3fdef66e0e}, !- Layer 2
  {3a7bb3be-05bb-49cc-ab60-26ab625bb9e2}, !- Layer 3
  {5782a506-0bfe-435d-a8a0-0eddebd9f15d}, !- Layer 4
  {afccda1f-2a20-424a-8cc2-c20fccee9172}; !- Layer 5

OS:Construction,
  {a59d02d5-bf45-4d5a-a6d3-0b5e3044b358}, !- Handle
  Generic Shade,                          !- Name
  ,                                       !- Surface Rendering Name
  {5511e4d5-ef15-4c52-8470-45a1e3f414fa}; !- Layer 1

OS:Material,
  {5511e4d5-ef15-4c52-8470-45a1e3f414fa}, !- Handle
  Material 1,                             !- Name
  Smooth,                                 !- Roughness
  0.1,                                    !- Thickness {m}
  0.1,                                    !- Conductivity {W/m-K}
  0.1,                                    !- Density {kg/m3}
  100,                                    !- Specific Heat {J/kg-K}
  ,                                       !- Thermal Absorptance
  0.65,                                   !- Solar Absorptance
  0.65;                                   !- Visible Absorptance

OS:Construction,
  {5f4ca164-dd09-4bfe-96e4-4f66cb961a76}, !- Handle
  Generic Ground Slab,                    !- Name
  ,                                       !- Surface Rendering Name
  {3a7bb3be-05bb-49cc-ab60-26ab625bb9e2}, !- Layer 1
  {43392c3e-8ed6-4342-b7d8-bcb85763ea19}; !- Layer 2

OS:Construction,
  {8311cae5-8f04-4d47-972c-1f1d156686fa}, !- Handle
  Generic Exterior Door,                  !- Name
  ,                                       !- Surface Rendering Name
  {2306f2eb-5ea4-434d-9df9-9a80ff6c2a91}, !- Layer 1
  {00bf77c4-2a88-4be2-a928-0993bfd6643c}, !- Layer 2
  {2306f2eb-5ea4-434d-9df9-9a80ff6c2a91}; !- Layer 3

OS:Construction,
  {46b3e72e-07ce-4665-952d-72ead21e8552}, !- Handle
  Generic Underground Wall,               !- Name
  ,                                       !- Surface Rendering Name
  {3a7bb3be-05bb-49cc-ab60-26ab625bb9e2}, !- Layer 1
  {43392c3e-8ed6-4342-b7d8-bcb85763ea19}, !- Layer 2
  {5782a506-0bfe-435d-a8a0-0eddebd9f15d}, !- Layer 3
  {afccda1f-2a20-424a-8cc2-c20fccee9172}; !- Layer 4

OS:DefaultConstructionSet,
  {87f322fd-f92c-470a-a1eb-bad3e1a0ad5d}, !- Handle
  Default Generic Construction Set,       !- Name
  {7f036f6c-3f59-4114-a23d-da95ea5e5869}, !- Default Exterior Surface Constructions Name
  {7e153058-090d-4bcb-bc46-5a689302f62c}, !- Default Interior Surface Constructions Name
  {7f036f6c-3f59-4114-a23d-da95ea5e5869}, !- Default Ground Contact Surface Constructions Name
  {6f84079c-3c0a-4c0d-91d2-13f4ecfc3904}, !- Default Exterior SubSurface Constructions Name
  {07c02452-525a-452e-87fc-e48858c4633f}, !- Default Interior SubSurface Constructions Name
  ,                                       !- Interior Partition Construction Name
  {a59d02d5-bf45-4d5a-a6d3-0b5e3044b358}, !- Space Shading Construction Name
  ,                                       !- Building Shading Construction Name
  ,                                       !- Site Shading Construction Name
  ;                                       !- Adiabatic Surface Construction Name

OS:DefaultSurfaceConstructions,
  {7e153058-090d-4bcb-bc46-5a689302f62c}, !- Handle
  Default Surface Constructions 1,        !- Name
  {a45339f2-18d8-4f08-a31a-64db4f0d302c}, !- Floor Construction Name
  {b510ade5-e1d7-4156-9fcd-bd3ee1e24e45}, !- Wall Construction Name
  {352503d5-4f95-4d63-82d4-6d6cd86f9d5c}; !- Roof Ceiling Construction Name

OS:DefaultSurfaceConstructions,
  {f435dc1d-9b3a-44bf-bda7-72796a053453}, !- Handle
  Default Surface Constructions 2,        !- Name
  {80a157f4-4e55-417a-b9b0-bfc5ff085167}, !- Floor Construction Name
  {d6c3aa83-8cbc-458e-b573-7a07c2843878}, !- Wall Construction Name
  {0288a39f-a96a-4588-8f0a-e25213908af2}; !- Roof Ceiling Construction Name

OS:DefaultSurfaceConstructions,
  {7f036f6c-3f59-4114-a23d-da95ea5e5869}, !- Handle
  Default Surface Constructions 3,        !- Name
  {5f4ca164-dd09-4bfe-96e4-4f66cb961a76}, !- Floor Construction Name
  {46b3e72e-07ce-4665-952d-72ead21e8552}, !- Wall Construction Name
  {299f4734-d186-42d7-ba48-7fa197065589}; !- Roof Ceiling Construction Name

OS:DefaultSubSurfaceConstructions,
  {07c02452-525a-452e-87fc-e48858c4633f}, !- Handle
  Default Sub Surface Constructions 1,    !- Name
  ,                                       !- Fixed Window Construction Name
  {a125a58a-f40e-4288-9223-aecd8954bd53}, !- Operable Window Construction Name
  ,                                       !- Door Construction Name
  {a125a58a-f40e-4288-9223-aecd8954bd53}, !- Glass Door Construction Name
  {38c50ce2-8e52-43d9-9d03-6698582a2a57}, !- Overhead Door Construction Name
  ,                                       !- Skylight Construction Name
  ,                                       !- Tubular Daylight Dome Construction Name
  ;                                       !- Tubular Daylight Diffuser Construction Name

OS:DefaultSubSurfaceConstructions,
  {6f84079c-3c0a-4c0d-91d2-13f4ecfc3904}, !- Handle
  Default Sub Surface Constructions 2,    !- Name
  {bcbb9fac-6183-4513-bce4-eca665ccfb08}, !- Fixed Window Construction Name
  ,                                       !- Operable Window Construction Name
  {8311cae5-8f04-4d47-972c-1f1d156686fa}, !- Door Construction Name
  {bcbb9fac-6183-4513-bce4-eca665ccfb08}, !- Glass Door Construction Name
  ,                                       !- Overhead Door Construction Name
  {bcbb9fac-6183-4513-bce4-eca665ccfb08}, !- Skylight Construction Name
  ,                                       !- Tubular Daylight Dome Construction Name
  ;                                       !- Tubular Daylight Diffuser Construction Name

OS:DefaultConstructionSet,
  {77be03b6-6609-40d1-81ce-26dccbb6d938}, !- Handle
  Attic Construction Set,                 !- Name
  ,                                       !- Default Exterior Surface Constructions Name
  {9a7fe5b6-ab80-4925-b28f-5056d41b6ca2}, !- Default Interior Surface Constructions Name
  ,                                       !- Default Ground Contact Surface Constructions Name
  ,                                       !- Default Exterior SubSurface Constructions Name
  ,                                       !- Default Interior SubSurface Constructions Name
  ,                                       !- Interior Partition Construction Name
  ,                                       !- Space Shading Construction Name
  ,                                       !- Building Shading Construction Name
  ,                                       !- Site Shading Construction Name
  ;                                       !- Adiabatic Surface Construction Name

OS:DefaultSurfaceConstructions,
  {9a7fe5b6-ab80-4925-b28f-5056d41b6ca2}, !- Handle
  Default Surface Constructions 4,        !- Name
  {3496ecf0-12f9-4278-b88c-e98129f1976c}, !- Floor Construction Name
  ,                                       !- Wall Construction Name
  ;                                       !- Roof Ceiling Construction Name

OS:DefaultSurfaceConstructions,
  {15cba866-2604-4c3e-b090-a57e899a48cf}, !- Handle
  Default Surface Constructions 5,        !- Name
  ,                                       !- Floor Construction Name
  ,                                       !- Wall Construction Name
  ;                                       !- Roof Ceiling Construction Name

OS:DefaultSurfaceConstructions,
  {a0a441ea-8a90-4169-9d59-a388b7b57454}, !- Handle
  Default Surface Constructions 6,        !- Name
  ,                                       !- Floor Construction Name
  ,                                       !- Wall Construction Name
  ;                                       !- Roof Ceiling Construction Name

OS:DefaultSubSurfaceConstructions,
  {975ec291-71aa-4d29-8c93-f4c4f93d929a}, !- Handle
  Default Sub Surface Constructions 3,    !- Name
  ,                                       !- Fixed Window Construction Name
  ,                                       !- Operable Window Construction Name
  ,                                       !- Door Construction Name
  ,                                       !- Glass Door Construction Name
  ,                                       !- Overhead Door Construction Name
  ,                                       !- Skylight Construction Name
  ,                                       !- Tubular Daylight Dome Construction Name
  ;                                       !- Tubular Daylight Diffuser Construction Name

OS:DefaultSubSurfaceConstructions,
  {2297d57a-4917-4c5b-8fb2-78d38a479c32}, !- Handle
  Default Sub Surface Constructions 4,    !- Name
  ,                                       !- Fixed Window Construction Name
  ,                                       !- Operable Window Construction Name
  ,                                       !- Door Construction Name
  ,                                       !- Glass Door Construction Name
  ,                                       !- Overhead Door Construction Name
  ,                                       !- Skylight Construction Name
  ,                                       !- Tubular Daylight Dome Construction Name
  ;                                       !- Tubular Daylight Diffuser Construction Name

OS:Building,
  {ac62719f-79f4-44a0-af66-227c9621e4dd}, !- Handle
  Building 1,                             !- Name
  ,                                       !- Building Sector Type
  ,                                       !- North Axis {deg}
  ,                                       !- Nominal Floor to Floor Height {m}
  ,                                       !- Space Type Name
  {87f322fd-f92c-470a-a1eb-bad3e1a0ad5d}, !- Default Construction Set Name
  ;                                       !- Default Schedule Set Name

OS:ScheduleTypeLimits,
  {c1e8429f-3de6-4296-b4da-de6506131298}, !- Handle
  Temperature,                            !- Name
  -273.15,                                !- Lower Limit Value
  ,                                       !- Upper Limit Value
  Continuous,                             !- Numeric Type
  Temperature;                            !- Unit Type

OS:ScheduleTypeLimits,
  {ebab688f-2a45-4c55-a2bc-f764cc37c0fe}, !- Handle
  Fractional,                             !- Name
  0,                                      !- Lower Limit Value
  1,                                      !- Upper Limit Value
  Continuous,                             !- Numeric Type
  Dimensionless;                          !- Unit Type

OS:ScheduleTypeLimits,
  {e1ec2a8e-e8e0-4f0c-9cae-a7c7053f4015}, !- Handle
  Activity Level,                         !- Name
  0,                                      !- Lower Limit Value
  ,                                       !- Upper Limit Value
  Continuous,                             !- Numeric Type
  ActivityLevel;                          !- Unit Type

OS:Schedule:Ruleset,
  {7b6730ac-5019-4bb9-bd2a-4d0c53962e06}, !- Handle
  Generic Office Heating,                 !- Name
  {c1e8429f-3de6-4296-b4da-de6506131298}, !- Schedule Type Limits Name
  {0491bf77-f7f6-4639-8328-ac8f0131c5f5}, !- Default Day Schedule Name
  {e96b36d3-4343-4675-97a3-4d9316852ed1}, !- Summer Design Day Schedule Name
  {a65e01e5-6057-4204-a2e7-2f7470dad3af}; !- Winter Design Day Schedule Name

OS:Schedule:Day,
  {0491bf77-f7f6-4639-8328-ac8f0131c5f5}, !- Handle
  Schedule Day 1,                         !- Name
  {c1e8429f-3de6-4296-b4da-de6506131298}, !- Schedule Type Limits Name
  ,                                       !- Interpolate to Timestep
  24,                                     !- Hour 1
  0,                                      !- Minute 1
  0;                                      !- Value Until Time 1

OS:Schedule:Day,
  {d1ae05c3-1186-45c6-b01b-444b7fd7061b}, !- Handle
  OfficeMedium HTGSETP_SCH_YES_OPTIMUM_Default, !- Name
  ,                                       !- Schedule Type Limits Name
  ,                                       !- Interpolate to Timestep
  24,                                     !- Hour 1
  0,                                      !- Minute 1
  0;                                      !- Value Until Time 1

OS:Schedule:Day,
  {2b4fa249-358d-4d5e-8222-9a1367ef4958}, !- Handle
  OfficeMedium HTGSETP_SCH_YES_OPTIMUM_Default_SmrDsn, !- Name
  ,                                       !- Schedule Type Limits Name
  ,                                       !- Interpolate to Timestep
  24,                                     !- Hour 1
  0,                                      !- Minute 1
  0;                                      !- Value Until Time 1

OS:Schedule:Day,
  {9a7a4fe5-26d1-4a3c-8c4f-bda678dcd326}, !- Handle
  OfficeMedium HTGSETP_SCH_YES_OPTIMUM_WntrDsn, !- Name
  ,                                       !- Schedule Type Limits Name
  ,                                       !- Interpolate to Timestep
  5,                                      !- Hour 1
  0,                                      !- Minute 1
  17.6,                                   !- Value Until Time 1
  6,                                      !- Hour 2
  0,                                      !- Minute 2
  19.6,                                   !- Value Until Time 2
  7,                                      !- Hour 3
  0,                                      !- Minute 3
  21,                                     !- Value Until Time 3
  22,                                     !- Hour 4
  0,                                      !- Minute 4
  15.6,                                   !- Value Until Time 4
  24,                                     !- Hour 5
  0,                                      !- Minute 5
  0;                                      !- Value Until Time 5

OS:Schedule:Day,
  {fd30e957-1881-4fe8-a88a-1e71a947a5e0}, !- Handle
  OfficeMedium HTGSETP_SCH_YES_OPTIMUM_Wkdy, !- Name
  ,                                       !- Schedule Type Limits Name
  ,                                       !- Interpolate to Timestep
  5,                                      !- Hour 1
  0,                                      !- Minute 1
  17.8,                                   !- Value Until Time 1
  6,                                      !- Hour 2
  0,                                      !- Minute 2
  20,                                     !- Value Until Time 2
  7,                                      !- Hour 3
  0,                                      !- Minute 3
  21,                                     !- Value Until Time 3
  22,                                     !- Hour 4
  0,                                      !- Minute 4
  15.6,                                   !- Value Until Time 4
  24,                                     !- Hour 5
  0,                                      !- Minute 5