
OS:Version,
  {585e244d-e003-4320-bb94-63f63a374e96}, !- Handle
  2.8.1;                                  !- Version Identifier

OS:Material,
  {ff054a6d-5f9d-41c9-8d5d-90040a641b5f}, !- Handle
  PolyIso,                                !- Name
  MediumRough,                            !- Roughness
  0.2,                                    !- Thickness {m}
  0.03,                                   !- Conductivity {W/m-K}
  43,                                     !- Density {kg/m3}
  1210,                                   !- Specific Heat {J/kg-K}
  0.9,                                    !- Thermal Absorptance
  0.7,                                    !- Solar Absorptance
  0.7;                                    !- Visible Absorptance

OS:Material,
  {f35d9acf-229e-475a-86a9-a81d7a5c9fd6}, !- Handle
  Generic 50mm Insulation,                !- Name
  MediumRough,                            !- Roughness
  0.05,                                   !- Thickness {m}
  0.03,                                   !- Conductivity {W/m-K}
  43,                                     !- Density {kg/m3}
  1210,                                   !- Specific Heat {J/kg-K}
  0.9,                                    !- Thermal Absorptance
  0.7,                                    !- Solar Absorptance
  0.7;                                    !- Visible Absorptance

OS:Material,
  {e03fa9fe-36d7-4a99-bda0-5dcd116628a5}, !- Handle
  Generic HW Concrete,                    !- Name
  MediumRough,                            !- Roughness
  0.2,                                    !- Thickness {m}
  1.95,                                   !- Conductivity {W/m-K}
  2240,                                   !- Density {kg/m3}
  900,                                    !- Specific Heat {J/kg-K}
  0.9,                                    !- Thermal Absorptance
  0.8,                                    !- Solar Absorptance
  0.8;                                    !- Visible Absorptance

OS:Material,
  {c6360933-ed5f-4025-9b07-93dd6adcf021}, !- Handle
  Generic 25mm Wood,                      !- Name
  MediumSmooth,                           !- Roughness
  0.0254,                                 !- Thickness {m}
  0.15,                                   !- Conductivity {W/m-K}
  608,                                    !- Density {kg/m3}
  1630,                                   !- Specific Heat {J/kg-K}
  0.9,                                    !- Thermal Absorptance
  0.5,                                    !- Solar Absorptance
  0.5;                                    !- Visible Absorptance

OS:WindowMaterial:Glazing,
  {11aabdfc-0d9f-428e-90ff-9c93131c91e0}, !- Handle
  Generic Low-e Glass,                    !- Name
  SpectralAverage,                        !- Optical Data Type
  ,                                       !- Window Glass Spectral Data Set Name
  0.006,                                  !- Thickness {m}
  0.45,                                   !- Solar Transmittance at Normal Incidence
  0.36,                                   !- Front Side Solar Reflectance at Normal Incidence
  0.36,                                   !- Back Side Solar Reflectance at Normal Incidence
  0.71,                                   !- Visible Transmittance at Normal Incidence
  0.21,                                   !- Front Side Visible Reflectance at Normal Incidence
  0.21,                                   !- Back Side Visible Reflectance at Normal Incidence
  0,                                      !- Infrared Transmittance at Normal Incidence
  0.84,                                   !- Front Side Infrared Hemispherical Emissivity
  0.047,                                  !- Back Side Infrared Hemispherical Emissivity
  1,                                      !- Conductivity {W/m-K}
  1,                                      !- Dirt Correction Factor for Solar and Visible Transmittance
  No;                                     !- Solar Diffusing

OS:Material,
  {11d422c9-888d-438a-9ca8-f670238beea4}, !- Handle
  Generic Ceiling Air Gap,                !- Name
  Smooth,                                 !- Roughness
  0.1,                                    !- Thickness {m}
  0.556,                                  !- Conductivity {W/m-K}
  1.28,                                   !- Density {kg/m3}
  1000,                                   !- Specific Heat {J/kg-K}
  0.9,                                    !- Thermal Absorptance
  0.7,                                    !- Solar Absorptance
  0.7;                                    !- Visible Absorptance

OS:WindowMaterial:Glazing,
  {eb822f82-54fd-44e7-9313-e0a69246382a}, !- Handle
  Generic Clear Glass,                    !- Name
  SpectralAverage,                        !- Optical Data Type
  ,                                       !- Window Glass Spectral Data Set Name
  0.006,                                  !- Thickness {m}
  0.77,                                   !- Solar Transmittance at Normal Incidence
  0.07,                                   !- Front Side Solar Reflectance at Normal Incidence
  0.07,                                   !- Back Side Solar Reflectance at Normal Incidence
  0.88,                                   !- Visible Transmittance at Normal Incidence
  0.08,                                   !- Front Side Visible Reflectance at Normal Incidence
  0.08,                                   !- Back Side Visible Reflectance at Normal Incidence
  0,                                      !- Infrared Transmittance at Normal Incidence
  0.84,                                   !- Front Side Infrared Hemispherical Emissivity
  0.84,                                   !- Back Side Infrared Hemispherical Emissivity
  1,                                      !- Conductivity {W/m-K}
  1,                                      !- Dirt Correction Factor for Solar and Visible Transmittance
  No;                                     !- Solar Diffusing

OS:Material,
  {025da26b-ed41-4f45-89fd-909531eea7de}, !- Handle
  Generic LW Concrete,                    !- Name
  MediumRough,                            !- Roughness
  0.1,                                    !- Thickness {m}
  0.53,                                   !- Conductivity {W/m-K}
  1280,                                   !- Density {kg/m3}
  840,                                    !- Specific Heat {J/kg-K}
  0.9,                                    !- Thermal Absorptance
  0.8,                                    !- Solar Absorptance
  0.8;                                    !- Visible Absorptance

OS:Material,
  {559d6c7f-9f56-40e8-bc66-a80d26a518d7}, !- Handle
  Generic 25mm Insulation,                !- Name
  MediumRough,                            !- Roughness
  0.05,                                   !- Thickness {m}
  0.03,                                   !- Conductivity {W/m-K}
  43,                                     !- Density {kg/m3}
  1210,                                   !- Specific Heat {J/kg-K}
  0.9,                                    !- Thermal Absorptance
  0.7,                                    !- Solar Absorptance
  0.7;                                    !- Visible Absorptance

OS:Material,
  {bc7544f3-ed33-468a-9f11-80c615be4ce7}, !- Handle
  Generic Brick,                          !- Name
  MediumRough,                            !- Roughness
  0.1,                                    !- Thickness {m}
  0.9,                                    !- Conductivity {W/m-K}
  1920,                                   !- Density {kg/m3}
  790,                                    !- Specific Heat {J/kg-K}
  0.9,                                    !- Thermal Absorptance
  0.65,                                   !- Solar Absorptance
  0.65;                                   !- Visible Absorptance

OS:Material,
  {964191b3-1491-46a7-98a5-8f847c990116}, !- Handle
  Generic Acoustic Tile,                  !- Name
  MediumSmooth,                           !- Roughness
  0.02,                                   !- Thickness {m}
  0.06,                                   !- Conductivity {W/m-K}
  368,                                    !- Density {kg/m3}
  590,                                    !- Specific Heat {J/kg-K}
  0.9,                                    !- Thermal Absorptance
  0.2,                                    !- Solar Absorptance
  0.2;                                    !- Visible Absorptance

OS:Material,
  {ec141664-272d-4353-b0c2-23a0cdace57e}, !- Handle
  Generic Gypsum Board,                   !- Name
  MediumSmooth,                           !- Roughness
  0.0127,                                 !- Thickness {m}
  0.16,                                   !- Conductivity {W/m-K}
  800,                                    !- Density {kg/m3}
  1090,                                   !- Specific Heat {J/kg-K}
  0.9,                                    !- Thermal Absorptance
  0.5,                                    !- Solar Absorptance
  0.5;                                    !- Visible Absorptance

OS:WindowMaterial:Gas,
  {2f810c7f-6de2-4c53-8fc8-662185d7a539}, !- Handle
  Generic Window Air Gap,                 !- Name
  Air,                                    !- Gas Type
  0.0127;                                 !- Thickness {m}

OS:Material,
  {c052fcca-73c7-4aa7-842b-b09782a9f674}, !- Handle
  Generic Painted Metal,                  !- Name
  Smooth,                                 !- Roughness
  0.0015,                                 !- Thickness {m}
  45,                                     !- Conductivity {W/m-K}
  7690,                                   !- Density {kg/m3}
  410,                                    !- Specific Heat {J/kg-K}
  0.9,                                    !- Thermal Absorptance
  0.5,                                    !- Solar Absorptance
  0.5;                                    !- Visible Absorptance

OS:Material,
  {0b4eaf4b-0173-497b-88d0-1357678f0c05}, !- Handle
  Generic Wall Air Gap,                   !- Name
  Smooth,                                 !- Roughness
  0.1,                                    !- Thickness {m}
  0.667,                                  !- Conductivity {W/m-K}
  1.28,                                   !- Density {kg/m3}
  1000,                                   !- Specific Heat {J/kg-K}
  0.9,                                    !- Thermal Absorptance
  0.7,                                    !- Solar Absorptance
  0.7;                                    !- Visible Absorptance

OS:Material,
  {27576003-06a4-4d45-a25f-e5e42b2e1309}, !- Handle
  Generic Roof Membrane,                  !- Name
  MediumRough,                            !- Roughness
  0.01,                                   !- Thickness {m}
  0.16,                                   !- Conductivity {W/m-K}
  1120,                                   !- Density {kg/m3}
  1460,                                   !- Specific Heat {J/kg-K}
  0.9,                                    !- Thermal Absorptance
  0.65,                                   !- Solar Absorptance
  0.65;                                   !- Visible Absorptance

OS:Construction,
  {bb6787dd-ae66-4137-aae3-ceafd92c1ace}, !- Handle
  Generic Interior Ceiling,               !- Name
  ,                                       !- Surface Rendering Name
  {025da26b-ed41-4f45-89fd-909531eea7de}, !- Layer 1
  {11d422c9-888d-438a-9ca8-f670238beea4}, !- Layer 2
  {964191b3-1491-46a7-98a5-8f847c990116}; !- Layer 3

OS:Construction,
  {d86aaa79-90e1-4ef0-af11-bae7a2c3b71e}, !- Handle
  Attic Floor Construction,               !- Name
  ,                                       !- Surface Rendering Name
  {c6360933-ed5f-4025-9b07-93dd6adcf021}, !- Layer 1
  {f35d9acf-229e-475a-86a9-a81d7a5c9fd6}, !- Layer 2
  {c6360933-ed5f-4025-9b07-93dd6adcf021}; !- Layer 3

OS:Construction,
  {5144816a-3ee2-43ee-878a-e9038e023416}, !- Handle
  Generic Ground Slab,                    !- Name
  ,                                       !- Surface Rendering Name
  {f35d9acf-229e-475a-86a9-a81d7a5c9fd6}, !- Layer 1
  {e03fa9fe-36d7-4a99-bda0-5dcd116628a5}; !- Layer 2

OS:Construction,
  {e82865fd-3c6b-4f3e-9457-73065ea74ede}, !- Handle
  Generic Shade,                          !- Name
  ,                                       !- Surface Rendering Name
  {b68b1276-3c78-49e5-b6a2-a9f5d8c3e948}; !- Layer 1

OS:Material,
  {b68b1276-3c78-49e5-b6a2-a9f5d8c3e948}, !- Handle
  Material 1,                             !- Name
  Smooth,                                 !- Roughness
  0.1,                                    !- Thickness {m}
  0.1,                                    !- Conductivity {W/m-K}
  0.1,                                    !- Density {kg/m3}
  100,                                    !- Specific Heat {J/kg-K}
  ,                                       !- Thermal Absorptance
  0.65,                                   !- Solar Absorptance
  0.65;                                   !- Visible Absorptance

OS:Construction,
  {03a80c1d-a8ce-459f-a954-f803d35e26d1}, !- Handle
  Generic Roof,                           !- Name
  ,                                       !- Surface Rendering Name
  {27576003-06a4-4d45-a25f-e5e42b2e1309}, !- Layer 1
  {f35d9acf-229e-475a-86a9-a81d7a5c9fd6}, !- Layer 2
  {025da26b-ed41-4f45-89fd-909531eea7de}, !- Layer 3
  {11d422c9-888d-438a-9ca8-f670238beea4}, !- Layer 4
  {964191b3-1491-46a7-98a5-8f847c990116}; !- Layer 5

OS:Construction,
  {d6d8bf90-6bb7-4ca3-8ece-8d50e521a177}, !- Handle
  Generic Interior Floor,                 !- Name
  ,                                       !- Surface Rendering Name
  {964191b3-1491-46a7-98a5-8f847c990116}, !- Layer 1
  {11d422c9-888d-438a-9ca8-f670238beea4}, !- Layer 2
  {025da26b-ed41-4f45-89fd-909531eea7de}; !- Layer 3

OS:Construction,
  {4a372aa3-c923-4054-a1c8-2060f1977d64}, !- Handle
  Generic Interior Door,                  !- Name
  ,                                       !- Surface Rendering Name
  {c6360933-ed5f-4025-9b07-93dd6adcf021}; !- Layer 1

OS:Construction,
  {001f4811-f409-468a-9268-e80535d7f6ca}, !- Handle
  Attic Roof Construction,                !- Name
  ,                                       !- Surface Rendering Name
  {27576003-06a4-4d45-a25f-e5e42b2e1309}, !- Layer 1
  {ff054a6d-5f9d-41c9-8d5d-90040a641b5f}, !- Layer 2
  {c6360933-ed5f-4025-9b07-93dd6adcf021}; !- Layer 3

OS:Construction,
  {454ef0e8-8532-403a-9b45-cdbe11f9ea5e}, !- Handle
  Generic Exterior Wall,                  !- Name
  ,                                       !- Surface Rendering Name
  {bc7544f3-ed33-468a-9f11-80c615be4ce7}, !- Layer 1
  {025da26b-ed41-4f45-89fd-909531eea7de}, !- Layer 2
  {f35d9acf-229e-475a-86a9-a81d7a5c9fd6}, !- Layer 3
  {0b4eaf4b-0173-497b-88d0-1357678f0c05}, !- Layer 4
  {ec141664-272d-4353-b0c2-23a0cdace57e}; !- Layer 5

OS:Construction,
  {e4119648-a497-477a-acc9-37c182885d6f}, !- Handle
  Generic Underground Wall,               !- Name
  ,                                       !- Surface Rendering Name
  {f35d9acf-229e-475a-86a9-a81d7a5c9fd6}, !- Layer 1
  {e03fa9fe-36d7-4a99-bda0-5dcd116628a5}, !- Layer 2
  {0b4eaf4b-0173-497b-88d0-1357678f0c05}, !- Layer 3
  {ec141664-272d-4353-b0c2-23a0cdace57e}; !- Layer 4

OS:Construction,
  {3eee9615-dc25-4462-a04c-9104171c5d3d}, !- Handle
  Generic Interior Wall,                  !- Name
  ,                                       !- Surface Rendering Name
  {ec141664-272d-4353-b0c2-23a0cdace57e}, !- Layer 1
  {0b4eaf4b-0173-497b-88d0-1357678f0c05}, !- Layer 2
  {ec141664-272d-4353-b0c2-23a0cdace57e}; !- Layer 3

OS:Construction,
  {f7cf019f-04db-4c6c-b3fe-e4b27d52dfef}, !- Handle
  Generic Exposed Floor,                  !- Name
  ,                                       !- Surface Rendering Name
  {c052fcca-73c7-4aa7-842b-b09782a9f674}, !- Layer 1
  {11d422c9-888d-438a-9ca8-f670238beea4}, !- Layer 2
  {f35d9acf-229e-475a-86a9-a81d7a5c9fd6}, !- Layer 3
  {025da26b-ed41-4f45-89fd-909531eea7de}; !- Layer 4

OS:Construction,
  {f4af4bb5-143b-4e89-bee5-27c0820ab493}, !- Handle
  Generic Underground Roof,               !- Name
  ,                                       !- Surface Rendering Name
  {f35d9acf-229e-475a-86a9-a81d7a5c9fd6}, !- Layer 1
  {e03fa9fe-36d7-4a99-bda0-5dcd116628a5}, !- Layer 2
  {11d422c9-888d-438a-9ca8-f670238beea4}, !- Layer 3
  {964191b3-1491-46a7-98a5-8f847c990116}; !- Layer 4

OS:Construction,
  {720057cf-427d-4dc6-93de-2bebff23aa7e}, !- Handle
  Generic Single Pane,                    !- Name
  ,                                       !- Surface Rendering Name
  {eb822f82-54fd-44e7-9313-e0a69246382a}; !- Layer 1

OS:Construction,
  {f99e7740-e1a6-46f3-833a-2db4cb91d94d}, !- Handle
  Generic Exterior Door,                  !- Name
  ,                                       !- Surface Rendering Name
  {c052fcca-73c7-4aa7-842b-b09782a9f674}, !- Layer 1
  {559d6c7f-9f56-40e8-bc66-a80d26a518d7}, !- Layer 2
  {c052fcca-73c7-4aa7-842b-b09782a9f674}; !- Layer 3

OS:Construction,
  {143c2c7d-a124-40c0-bcfb-4e242620cadf}, !- Handle
  Generic Double Pane,                    !- Name
  ,                                       !- Surface Rendering Name
  {11aabdfc-0d9f-428e-90ff-9c93131c91e0}, !- Layer 1
  {2f810c7f-6de2-4c53-8fc8-662185d7a539}, !- Layer 2
  {eb822f82-54fd-44e7-9313-e0a69246382a}; !- Layer 3

OS:DefaultConstructionSet,
  {e8d97639-3378-4e09-8e89-1720b76c6904}, !- Handle
  Default Generic Construction Set,       !- Name
  {b86aa0a7-14af-4df0-8ab7-04738d29b3ca}, !- Default Exterior Surface Constructions Name
  {625a7f68-a03d-457d-8ad2-356b741dcf78}, !- Default Interior Surface Constructions Name
  {b86aa0a7-14af-4df0-8ab7-04738d29b3ca}, !- Default Ground Contact Surface Constructions Name
  {5ebf79f8-e3b4-477f-91b7-b3fc620b3e62}, !- Default Exterior SubSurface Constructions Name
  {febab55e-0193-48cd-9c6f-037a015b003e}, !- Default Interior SubSurface Constructions Name
  ,                                       !- Interior Partition Construction Name
  {e82865fd-3c6b-4f3e-9457-73065ea74ede}, !- Space Shading Construction Name
  ,                                       !- Building Shading Construction Name
  ,                                       !- Site Shading Construction Name
  ;                                       !- Adiabatic Surface Construction Name

OS:DefaultSurfaceConstructions,
  {625a7f68-a03d-457d-8ad2-356b741dcf78}, !- Handle
  Default Surface Constructions 1,        !- Name
  {d6d8bf90-6bb7-4ca3-8ece-8d50e521a177}, !- Floor Construction Name
  {3eee9615-dc25-4462-a04c-9104171c5d3d}, !- Wall Construction Name
  {bb6787dd-ae66-4137-aae3-ceafd92c1ace}; !- Roof Ceiling Construction Name

OS:DefaultSurfaceConstructions,
  {0cc33df9-adff-48f9-a9b0-21fb8646daa6}, !- Handle
  Default Surface Constructions 2,        !- Name
  {f7cf019f-04db-4c6c-b3fe-e4b27d52dfef}, !- Floor Construction Name
  {454ef0e8-8532-403a-9b45-cdbe11f9ea5e}, !- Wall Construction Name
  {03a80c1d-a8ce-459f-a954-f803d35e26d1}; !- Roof Ceiling Construction Name

OS:DefaultSurfaceConstructions,
  {b86aa0a7-14af-4df0-8ab7-04738d29b3ca}, !- Handle
  Default Surface Constructions 3,        !- Name
  {5144816a-3ee2-43ee-878a-e9038e023416}, !- Floor Construction Name
  {e4119648-a497-477a-acc9-37c182885d6f}, !- Wall Construction Name
  {f4af4bb5-143b-4e89-bee5-27c0820ab493}; !- Roof Ceiling Construction Name

OS:DefaultSubSurfaceConstructions,
  {febab55e-0193-48cd-9c6f-037a015b003e}, !- Handle
  Default Sub Surface Constructions 1,    !- Name
  ,                                       !- Fixed Window Construction Name
  {720057cf-427d-4dc6-93de-2bebff23aa7e}, !- Operable Window Construction Name
  ,                                       !- Door Construction Name
  {720057cf-427d-4dc6-93de-2bebff23aa7e}, !- Glass Door Construction Name
  {4a372aa3-c923-4054-a1c8-2060f1977d64}, !- Overhead Door Construction Name
  ,                                       !- Skylight Construction Name
  ,                                       !- Tubular Daylight Dome Construction Name
  ;                                       !- Tubular Daylight Diffuser Construction Name

OS:DefaultSubSurfaceConstructions,
  {5ebf79f8-e3b4-477f-91b7-b3fc620b3e62}, !- Handle
  Default Sub Surface Constructions 2,    !- Name
  {143c2c7d-a124-40c0-bcfb-4e242620cadf}, !- Fixed Window Construction Name
  ,                                       !- Operable Window Construction Name
  {f99e7740-e1a6-46f3-833a-2db4cb91d94d}, !- Door Construction Name
  {143c2c7d-a124-40c0-bcfb-4e242620cadf}, !- Glass Door Construction Name
  ,                                       !- Overhead Door Construction Name
  {143c2c7d-a124-40c0-bcfb-4e242620cadf}, !- Skylight Construction Name
  ,                                       !- Tubular Daylight Dome Construction Name
  ;                                       !- Tubular Daylight Diffuser Construction Name

OS:DefaultConstructionSet,
  {1886594a-94ef-4bc8-af04-b3749a3b212e}, !- Handle
  Attic Construction Set,                 !- Name
  ,                                       !- Default Exterior Surface Constructions Name
  {b5a9d95e-8bb9-4f4e-8ce3-e2a9acfe249a}, !- Default Interior Surface Constructions Name
  ,                                       !- Default Ground Contact Surface Constructions Name
  ,                                       !- Default Exterior SubSurface Constructions Name
  ,                                       !- Default Interior SubSurface Constructions Name
  ,                                       !- Interior Partition Construction Name
  ,                                       !- Space Shading Construction Name
  ,                                       !- Building Shading Construction Name
  ,                                       !- Site Shading Construction Name
  ;                                       !- Adiabatic Surface Construction Name

OS:DefaultSurfaceConstructions,
  {b5a9d95e-8bb9-4f4e-8ce3-e2a9acfe249a}, !- Handle
  Default Surface Constructions 4,        !- Name
  {d86aaa79-90e1-4ef0-af11-bae7a2c3b71e}, !- Floor Construction Name
  ,                                       !- Wall Construction Name
  ;                                       !- Roof Ceiling Construction Name

OS:DefaultSurfaceConstructions,
  {07bb943d-88b4-4fc4-8ec6-51a3fb80b455}, !- Handle
  Default Surface Constructions 5,        !- Name
  ,                                       !- Floor Construction Name
  ,                                       !- Wall Construction Name
  ;                                       !- Roof Ceiling Construction Name

OS:DefaultSurfaceConstructions,
  {a681f755-a767-4807-8f60-938c89d71bc0}, !- Handle
  Default Surface Constructions 6,        !- Name
  ,                                       !- Floor Construction Name
  ,                                       !- Wall Construction Name
  ;                                       !- Roof Ceiling Construction Name

OS:DefaultSubSurfaceConstructions,
  {5fda6e63-b4fb-4b6e-bc73-fcd478bc3090}, !- Handle
  Default Sub Surface Constructions 3,    !- Name
  ,                                       !- Fixed Window Construction Name
  ,                                       !- Operable Window Construction Name
  ,                                       !- Door Construction Name
  ,                                       !- Glass Door Construction Name
  ,                                       !- Overhead Door Construction Name
  ,                                       !- Skylight Construction Name
  ,                                       !- Tubular Daylight Dome Construction Name
  ;                                       !- Tubular Daylight Diffuser Construction Name

OS:DefaultSubSurfaceConstructions,
  {42dd4a34-4985-4856-87cf-3352c327eb4e}, !- Handle
  Default Sub Surface Constructions 4,    !- Name
  ,                                       !- Fixed Window Construction Name
  ,                                       !- Operable Window Construction Name
  ,                                       !- Door Construction Name
  ,                                       !- Glass Door Construction Name
  ,                                       !- Overhead Door Construction Name
  ,                                       !- Skylight Construction Name
  ,                                       !- Tubular Daylight Dome Construction Name
  ;                                       !- Tubular Daylight Diffuser Construction Name

OS:Building,
  {7199eadc-aa75-4574-9332-cc0256d3b14b}, !- Handle
  Building 1,                             !- Name
  ,                                       !- Building Sector Type
  ,                                       !- North Axis {deg}
  ,                                       !- Nominal Floor to Floor Height {m}
  ,                                       !- Space Type Name
  {e8d97639-3378-4e09-8e89-1720b76c6904}, !- Default Construction Set Name
  ;                                       !- Default Schedule Set Name

OS:Space,
  {2f485fd1-fd78-46ba-8f02-430a65f90c63}, !- Handle
  FirstFloor,                             !- Name
  ,                                       !- Space Type Name
  ,                                       !- Default Construction Set Name
  ,                                       !- Default Schedule Set Name
  ,                                       !- Direction of Relative North {deg}
  ,                                       !- X Origin {m}
  ,                                       !- Y Origin {m}
  ,                                       !- Z Origin {m}
  ,                                       !- Building Story Name
  {f2167d8f-9ec9-4d0b-88b4-91ce5eca633f}; !- Thermal Zone Name

OS:Surface,
  {56cd82d5-186d-4e2f-a976-48ecf13a95db}, !- Handle
  FirstFloor_Bottom,                      !- Name
  Floor,                                  !- Surface Type
  ,                                       !- Construction Name
  {2f485fd1-fd78-46ba-8f02-430a65f90c63}, !- Space Name
  Ground,                                 !- Outside Boundary Condition
  ,                                       !- Outside Boundary Condition Object
  NoSun,                                  !- Sun Exposure
  NoWind,                                 !- Wind Exposure
  ,                                       !- View Factor to Ground
  ,                                       !- Number of Vertices
  0, 0, 0,                                !- X,Y,Z Vertex 1 {m}
  0, 10, 0,                               !- X,Y,Z Vertex 2 {m}
  10, 10, 0,                              !- X,Y,Z Vertex 3 {m}
  10, 0, 0;                               !- X,Y,Z Vertex 4 {m}

OS:ShadingSurfaceGroup,
  {e3d243f7-a69a-4817-a8e1-d8873ebbe9d5}, !- Handle
  Shading Surface Group 1,                !- Name
  Building;                               !- Shading Surface Type

OS:Surface,
  {00f85af3-58ca-4115-ac7e-c4c8b424e322}, !- Handle
  FirstFloor_Front,                       !- Name
  Wall,                                   !- Surface Type
  ,                                       !- Construction Name
  {2f485fd1-fd78-46ba-8f02-430a65f90c63}, !- Space Name
  Outdoors,                               !- Outside Boundary Condition
  ,                                       !- Outside Boundary Condition Object
  SunExposed,                             !- Sun Exposure
  WindExposed,                            !- Wind Exposure
  Autocalculate,                          !- View Factor to Ground
  ,                                       !- Number of Vertices
  10, 10, 3,                              !- X,Y,Z Vertex 1 {m}
  10, 10, 0,                              !- X,Y,Z Vertex 2 {m}
  0, 10, 0,                               !- X,Y,Z Vertex 3 {m}
  0, 10, 3;                               !- X,Y,Z Vertex 4 {m}

OS:SubSurface,
  {00316f9b-9c29-4405-b012-c2620161dac2}, !- Handle
  FirstFloor_Front_Glz0,                  !- Name
  FixedWindow,                            !- Sub Surface Type
  ,                                       !- Construction Name
  {00f85af3-58ca-4115-ac7e-c4c8b424e322}, !- Surface Name
  ,                                       !- Outside Boundary Condition Object
  ,                                       !- View Factor to Ground
  ,                                       !- Shading Control Name
  ,                                       !- Frame and Divider Name
  ,                                       !- Multiplier
  ,                                       !- Number of Vertices
  7.23606797749979, 10, 2.17082039324994, !- X,Y,Z Vertex 1 {m}
  7.23606797749979, 10, 0.829179606750063, !- X,Y,Z Vertex 2 {m}
  2.76393202250021, 10, 0.829179606750063, !- X,Y,Z Vertex 3 {m}
  2.76393202250021, 10, 2.17082039324994; !- X,Y,Z Vertex 4 {m}

OS:ShadingSurfaceGroup,
  {293349d1-251b-4a1f-8f8d-f3822cc60309}, !- Handle
  Shading Surface Group 2,                !- Name
  Building;                               !- Shading Surface Type

OS:ShadingSurfaceGroup,
  {0d72b012-1c9d-4a9c-842c-95fe13e1222d}, !- Handle
  Shading Surface Group 3,                !- Name
  Building;                               !- Shading Surface Type

OS:Surface,
  {790e8959-e743-4310-8a81-f5597619739f}, !- Handle
  FirstFloor_Right,                       !- Name
  Wall,                                   !- Surface Type
  ,                                       !- Construction Name
  {2f485fd1-fd78-46ba-8f02-430a65f90c63}, !- Space Name
  Outdoors,                               !- Outside Boundary Condition
  ,                                       !- Outside Boundary Condition Object
  SunExposed,                             !- Sun Exposure
  WindExposed,                            !- Wind Exposure
  Autocalculate,                          !- View Factor to Ground
  ,                                       !- Number of Vertices
  10, 0, 3,                               !- X,Y,Z Vertex 1 {m}
  10, 0, 0,                               !- X,Y,Z Vertex 2 {m}
  10, 10, 0,                              !- X,Y,Z Vertex 3 {m}